@<TRIPOS>MOLECULE
*****
 38 44 0 0 0
SMALL
GASTEIGER

@<TRIPOS>ATOM
      1 C           1.2273   -1.5788   -0.0627 C.3     1  UNL1        0.1193
      2 C          -1.2452    1.5089    0.0465 C.3     1  UNL1        0.1193
      3 C          -0.3442   -2.0332   -0.0858 C.3     1  UNL1        0.1193
      4 C           0.3260    1.9630    0.0694 C.3     1  UNL1        0.1193
      5 N          -0.8257   -1.5391   -1.3960 N.3     1  UNL1       -0.2194
      6 N           0.8083    1.4680    1.3795 N.3     1  UNL1       -0.2194
      7 N          -0.8540   -1.5901    1.1992 N.am    1  UNL1       -0.2532
      8 N           0.8351    1.5206   -1.2159 N.am    1  UNL1       -0.2532
      9 N           1.3911   -0.8751   -1.3366 N.3     1  UNL1       -0.2194
     10 N          -1.4088    0.8059    1.3205 N.3     1  UNL1       -0.2194
     11 N           1.3888   -0.9400    1.2175 N.am    1  UNL1       -0.2532
     12 N          -1.4068    0.8686   -1.2333 N.am    1  UNL1       -0.2532
     13 C           0.3305   -1.2508   -2.0993 C.3     1  UNL1        0.2444
     14 C          -0.3476    1.1798    2.0830 C.3     1  UNL1        0.2444
     15 C           0.2944   -1.3541    2.0393 C.2     1  UNL1        0.3093
     16 C          -0.3130    1.2824   -2.0555 C.2     1  UNL1        0.3093
     17 O           0.4677   -1.3132   -3.3810 O.3     1  UNL1       -0.3573
     18 O          -0.4846    1.2387    3.3648 O.3     1  UNL1       -0.3573
     19 O           0.2884   -1.3489    3.2341 O.2     1  UNL1       -0.2523
     20 O          -0.3064    1.2747   -3.2504 O.2     1  UNL1       -0.2523
     21 C          -1.8868   -0.4594   -1.5735 C.3     1  UNL1        0.0765
     22 C           1.8694    0.3878    1.5565 C.3     1  UNL1        0.0765
     23 C          -1.8957   -0.6261    1.5187 C.3     1  UNL1        0.0765
     24 C           1.8774    0.5575   -1.5350 C.3     1  UNL1        0.0765
     25 H          -0.4129   -3.1216   -0.1272 H       1  UNL1        0.0707
     26 H           0.3950    3.0513    0.1120 H       1  UNL1        0.0707
     27 H           1.8672   -2.4637   -0.1061 H       1  UNL1        0.0707
     28 H          -1.8854    2.3936    0.0894 H       1  UNL1        0.0707
     29 H          -2.7675   -0.7478   -1.0095 H       1  UNL1        0.0637
     30 H           2.7484    0.6747    0.9894 H       1  UNL1        0.0637
     31 H          -2.8029   -0.7722    0.9425 H       1  UNL1        0.0637
     32 H           2.7839    0.7049   -0.9582 H       1  UNL1        0.0637
     33 H          -2.1583   -0.4509   -2.6302 H       1  UNL1        0.0637
     34 H           2.1439    0.3808    2.6124 H       1  UNL1        0.0637
     35 H          -2.1344   -0.7261    2.5778 H       1  UNL1        0.0637
     36 H           2.1160    0.6574   -2.5942 H       1  UNL1        0.0637
     37 H           0.3397    1.4339    3.8513 H       1  UNL1        0.2133
     38 H          -0.3564   -1.5120   -3.8667 H       1  UNL1        0.2133
@<TRIPOS>BOND
     1    38    17    1
     2    17    13    1
     3    20    16    2
     4    33    21    1
     5    36    24    1
     6    13     5    1
     7    13     9    1
     8    16    12   am
     9    16     8   am
    10    21     5    1
    11    21    12    1
    12    21    29    1
    13    24     9    1
    14    24     8    1
    15    24    32    1
    16     5     3    1
    17     9     1    1
    18    12     2    1
    19     8     4    1
    20    25     3    1
    21    27     1    1
    22     3     1    1
    23     3     7    1
    24     1    11    1
    25     2     4    1
    26     2    28    1
    27     2    10    1
    28     4    26    1
    29     4     6    1
    30    31    23    1
    31    30    22    1
    32     7    23    1
    33     7    15   am
    34    11    22    1
    35    11    15   am
    36    10    23    1
    37    10    14    1
    38     6    22    1
    39     6    14    1
    40    23    35    1
    41    22    34    1
    42    15    19    2
    43    14    18    1
    44    18    37    1
